1344

C 3.66300 35.95500  0.00000
C 3.66300 37.36500  0.00000
C 6.10600 31.72500  0.00000
C 6.10600 33.13500  0.00000
C 4.88400 33.84000  0.00000
C 6.10600 35.95500  0.00000
C 4.88400 35.25000  0.00000
C 6.10600 37.36500  0.00000
C 4.88400 38.07000  0.00000
C 6.10600 40.18500  0.00000
C 4.88400 39.48000  0.00000
C 6.10600 41.59500  0.00000
C 8.54800 27.49500  0.00000
C 8.54800 28.90500  0.00000
C 7.32700 29.61000  0.00000
C 8.54800 31.72500  0.00000
C 7.32700 31.02000  0.00000
C 8.54800 33.13500  0.00000
C 7.32700 33.84000  0.00000
C 8.54800 35.95500  0.00000
C 7.32700 35.25000  0.00000
C 8.54800 37.36500  0.00000
C 7.32700 38.07000  0.00000
C 8.54800 40.18500  0.00000
C 7.32700 39.48000  0.00000
C 8.54800 41.59500  0.00000
C 7.32700 42.30000  0.00000
C 8.54800 44.41500  0.00000
C 7.32700 43.71000  0.00000
C 8.54800 45.82500  0.00000
C 10.99000 23.26500  0.00000
C 10.99000 24.67500  0.00000
C 9.76900 25.38000  0.00000
C 10.99000 27.49500  0.00000
C 9.76900 26.79000  0.00000
C 10.99000 28.90500  0.00000
C 9.76900 29.61000  0.00000
C 10.99000 31.72500  0.00000
C 9.76900 31.02000  0.00000
C 10.99000 33.13500  0.00000
C 9.76900 33.84000  0.00000
C 10.99000 35.95500  0.00000
C 9.76900 35.25000  0.00000
C 10.99000 37.36500  0.00000
C 9.76900 38.07000  0.00000
C 10.99000 40.18500  0.00000
C 9.76900 39.48000  0.00000
C 10.99000 41.59500  0.00000
C 9.76900 42.30000  0.00000
C 10.99000 44.41500  0.00000
C 9.76900 43.71000  0.00000
C 10.99000 45.82500  0.00000
C 9.76900 46.53000  0.00000
C 10.99000 48.64500  0.00000
C 9.76900 47.94000  0.00000
C 10.99000 50.05500  0.00000
C 13.43200 19.03500  0.00000
C 13.43200 20.44500  0.00000
C 12.21100 21.15000  0.00000
C 13.43200 23.26500  0.00000
C 12.21100 22.56000  0.00000
C 13.43200 24.67500  0.00000
C 12.21100 25.38000  0.00000
C 13.43200 27.49500  0.00000
C 12.21100 26.79000  0.00000
C 13.43200 28.90500  0.00000
C 12.21100 29.61000  0.00000
C 13.43200 31.72500  0.00000
C 12.21100 31.02000  0.00000
C 13.43200 33.13500  0.00000
C 12.21100 33.84000  0.00000
C 13.43200 35.95500  0.00000
C 12.21100 35.25000  0.00000
C 13.43200 37.36500  0.00000
C 12.21100 38.07000  0.00000
C 13.43200 40.18500  0.00000
C 12.21100 39.48000  0.00000
C 13.43200 41.59500  0.00000
C 12.21100 42.30000  0.00000
C 13.43200 44.41500  0.00000
C 12.21100 43.71000  0.00000
C 13.43200 45.82500  0.00000
C 12.21100 46.53000  0.00000
C 13.43200 48.64500  0.00000
C 12.21100 47.94000  0.00000
C 13.43200 50.05500  0.00000
C 12.21100 50.76000  0.00000
C 13.43200 52.87500  0.00000
C 12.21100 52.17000  0.00000
C 13.43200 54.28500  0.00000
C 15.87400 14.80500  0.00000
C 15.87400 16.21500  0.00000
C 14.65300 16.92000  0.00000
C 15.87400 19.03500  0.00000
C 14.65300 18.33000  0.00000
C 15.87400 20.44500  0.00000
C 14.65300 21.15000  0.00000
C 15.87400 23.26500  0.00000
C 14.65300 22.56000  0.00000
C 15.87400 24.67500  0.00000
C 14.65300 25.38000  0.00000
C 15.87400 27.49500  0.00000
C 14.65300 26.79000  0.00000
C 15.87400 28.90500  0.00000
C 14.65300 29.61000  0.00000
C 15.87400 31.72500  0.00000
C 14.65300 31.02000  0.00000
C 15.87400 33.13500  0.00000
C 14.65300 33.84000  0.00000
C 15.87400 35.95500  0.00000
C 14.65300 35.25000  0.00000
C 15.87400 37.36500  0.00000
C 14.65300 38.07000  0.00000
C 15.87400 40.18500  0.00000
C 14.65300 39.48000  0.00000
C 15.87400 41.59500  0.00000
C 14.65300 42.30000  0.00000
C 15.87400 44.41500  0.00000
C 14.65300 43.71000  0.00000
C 15.87400 45.82500  0.00000
C 14.65300 46.53000  0.00000
C 15.87400 48.64500  0.00000
C 14.65300 47.94000  0.00000
C 15.87400 50.05500  0.00000
C 14.65300 50.76000  0.00000
C 15.87400 52.87500  0.00000
C 14.65300 52.17000  0.00000
C 15.87400 54.28500  0.00000
C 14.65300 54.99000  0.00000
C 15.87400 57.10500  0.00000
C 14.65300 56.40000  0.00000
C 15.87400 58.51500  0.00000
C 18.31600 10.57500  0.00000
C 18.31600 11.98500  0.00000
C 17.09500 12.69000  0.00000
C 18.31600 14.80500  0.00000
C 17.09500 14.10000  0.00000
C 18.31600 16.21500  0.00000
C 17.09500 16.92000  0.00000
C 18.31600 19.03500  0.00000
C 17.09500 18.33000  0.00000
C 18.31600 20.44500  0.00000
C 17.09500 21.15000  0.00000
C 18.31600 23.26500  0.00000
C 17.09500 22.56000  0.00000
C 18.31600 24.67500  0.00000
C 17.09500 25.38000  0.00000
C 18.31600 27.49500  0.00000
C 17.09500 26.79000  0.00000
C 18.31600 28.90500  0.00000
C 17.09500 29.61000  0.00000
C 18.31600 31.72500  0.00000
C 17.09500 31.02000  0.00000
C 18.31600 33.13500  0.00000
C 17.09500 33.84000  0.00000
C 18.31600 35.95500  0.00000
C 17.09500 35.25000  0.00000
C 18.31600 37.36500  0.00000
C 17.09500 38.07000  0.00000
C 18.31600 40.18500  0.00000
C 17.09500 39.48000  0.00000
C 18.31600 41.59500  0.00000
C 17.09500 42.30000  0.00000
C 18.31600 44.41500  0.00000
C 17.09500 43.71000  0.00000
C 18.31600 45.82500  0.00000
C 17.09500 46.53000  0.00000
C 18.31600 48.64500  0.00000
C 17.09500 47.94000  0.00000
C 18.31600 50.05500  0.00000
C 17.09500 50.76000  0.00000
C 18.31600 52.87500  0.00000
C 17.09500 52.17000  0.00000
C 18.31600 54.28500  0.00000
C 17.09500 54.99000  0.00000
C 18.31600 57.10500  0.00000
C 17.09500 56.40000  0.00000
C 18.31600 58.51500  0.00000
C 17.09500 59.22000  0.00000
C 18.31600 61.33500  0.00000
C 17.09500 60.63000  0.00000
C 18.31600 62.74500  0.00000
C 20.75900  7.75500  0.00000
C 19.53800  8.46000  0.00000
C 20.75900 10.57500  0.00000
C 19.53800  9.87000  0.00000
C 20.75900 11.98500  0.00000
C 19.53800 12.69000  0.00000
C 20.75900 14.80500  0.00000
C 19.53800 14.10000  0.00000
C 20.75900 16.21500  0.00000
C 19.53800 16.92000  0.00000
C 20.75900 19.03500  0.00000
C 19.53800 18.33000  0.00000
C 20.75900 20.44500  0.00000
C 19.53800 21.15000  0.00000
C 20.75900 23.26500  0.00000
C 19.53800 22.56000  0.00000
C 20.75900 24.67500  0.00000
C 19.53800 25.38000  0.00000
C 20.75900 27.49500  0.00000
C 19.53800 26.79000  0.00000
C 20.75900 28.90500  0.00000
C 19.53800 29.61000  0.00000
C 20.75900 31.72500  0.00000
C 19.53800 31.02000  0.00000
C 20.75900 33.13500  0.00000
C 19.53800 33.84000  0.00000
C 20.75900 35.95500  0.00000
C 19.53800 35.25000  0.00000
C 20.75900 37.36500  0.00000
C 19.53800 38.07000  0.00000
C 20.75900 40.18500  0.00000
C 19.53800 39.48000  0.00000
C 20.75900 41.59500  0.00000
C 19.53800 42.30000  0.00000
C 20.75900 44.41500  0.00000
C 19.53800 43.71000  0.00000
C 20.75900 45.82500  0.00000
C 19.53800 46.53000  0.00000
C 20.75900 48.64500  0.00000
C 19.53800 47.94000  0.00000
C 20.75900 50.05500  0.00000
C 19.53800 50.76000  0.00000
C 20.75900 52.87500  0.00000
C 19.53800 52.17000  0.00000
C 20.75900 54.28500  0.00000
C 19.53800 54.99000  0.00000
C 20.75900 57.10500  0.00000
C 19.53800 56.40000  0.00000
C 20.75900 58.51500  0.00000
C 19.53800 59.22000  0.00000
C 20.75900 61.33500  0.00000
C 19.53800 60.63000  0.00000
C 20.75900 62.74500  0.00000
C 19.53800 63.45000  0.00000
C 20.75900 65.56500  0.00000
C 19.53800 64.86000  0.00000
C 23.20100  7.75500  0.00000
C 21.98000  8.46000  0.00000
C 23.20100 10.57500  0.00000
C 21.98000  9.87000  0.00000
C 23.20100 11.98500  0.00000
C 21.98000 12.69000  0.00000
C 23.20100 14.80500  0.00000
C 21.98000 14.10000  0.00000
C 23.20100 16.21500  0.00000
C 21.98000 16.92000  0.00000
C 23.20100 19.03500  0.00000
C 21.98000 18.33000  0.00000
C 23.20100 20.44500  0.00000
C 21.98000 21.15000  0.00000
C 23.20100 23.26500  0.00000
C 21.98000 22.56000  0.00000
C 23.20100 24.67500  0.00000
C 21.98000 25.38000  0.00000
C 23.20100 27.49500  0.00000
C 21.98000 26.79000  0.00000
C 23.20100 28.90500  0.00000
C 21.98000 29.61000  0.00000
C 23.20100 31.72500  0.00000
C 21.98000 31.02000  0.00000
C 23.20100 33.13500  0.00000
C 21.98000 33.84000  0.00000
C 23.20100 35.95500  0.00000
C 21.98000 35.25000  0.00000
C 23.20100 37.36500  0.00000
C 21.98000 38.07000  0.00000
C 23.20100 40.18500  0.00000
C 21.98000 39.48000  0.00000
C 23.20100 41.59500  0.00000
C 21.98000 42.30000  0.00000
C 23.20100 44.41500  0.00000
C 21.98000 43.71000  0.00000
C 23.20100 45.82500  0.00000
C 21.98000 46.53000  0.00000
C 23.20100 48.64500  0.00000
C 21.98000 47.94000  0.00000
C 23.20100 50.05500  0.00000
C 21.98000 50.76000  0.00000
C 23.20100 52.87500  0.00000
C 21.98000 52.17000  0.00000
C 23.20100 54.28500  0.00000
C 21.98000 54.99000  0.00000
C 23.20100 57.10500  0.00000
C 21.98000 56.40000  0.00000
C 23.20100 58.51500  0.00000
C 21.98000 59.22000  0.00000
C 23.20100 61.33500  0.00000
C 21.98000 60.63000  0.00000
C 23.20100 62.74500  0.00000
C 21.98000 63.45000  0.00000
C 23.20100 65.56500  0.00000
C 21.98000 64.86000  0.00000
C 25.64300  7.75500  0.00000
C 24.42200  8.46000  0.00000
C 25.64300 10.57500  0.00000
C 24.42200  9.87000  0.00000
C 25.64300 11.98500  0.00000
C 24.42200 12.69000  0.00000
C 25.64300 14.80500  0.00000
C 24.42200 14.10000  0.00000
C 25.64300 16.21500  0.00000
C 24.42200 16.92000  0.00000
C 25.64300 19.03500  0.00000
C 24.42200 18.33000  0.00000
C 25.64300 20.44500  0.00000
C 24.42200 21.15000  0.00000
C 25.64300 23.26500  0.00000
C 24.42200 22.56000  0.00000
C 25.64300 24.67500  0.00000
C 24.42200 25.38000  0.00000
C 25.64300 27.49500  0.00000
C 24.42200 26.79000  0.00000
C 25.64300 28.90500  0.00000
C 24.42200 29.61000  0.00000
C 25.64300 31.72500  0.00000
C 24.42200 31.02000  0.00000
C 25.64300 33.13500  0.00000
C 24.42200 33.84000  0.00000
C 25.64300 35.95500  0.00000
C 24.42200 35.25000  0.00000
C 25.64300 37.36500  0.00000
C 24.42200 38.07000  0.00000
C 25.64300 40.18500  0.00000
C 24.42200 39.48000  0.00000
C 25.64300 41.59500  0.00000
C 24.42200 42.30000  0.00000
C 25.64300 44.41500  0.00000
C 24.42200 43.71000  0.00000
C 25.64300 45.82500  0.00000
C 24.42200 46.53000  0.00000
C 25.64300 48.64500  0.00000
C 24.42200 47.94000  0.00000
C 25.64300 50.05500  0.00000
C 24.42200 50.76000  0.00000
C 25.64300 52.87500  0.00000
C 24.42200 52.17000  0.00000
C 25.64300 54.28500  0.00000
C 24.42200 54.99000  0.00000
C 25.64300 57.10500  0.00000
C 24.42200 56.40000  0.00000
C 25.64300 58.51500  0.00000
C 24.42200 59.22000  0.00000
C 25.64300 61.33500  0.00000
C 24.42200 60.63000  0.00000
C 25.64300 62.74500  0.00000
C 24.42200 63.45000  0.00000
C 25.64300 65.56500  0.00000
C 24.42200 64.86000  0.00000
C 28.08500  7.75500  0.00000
C 26.86400  8.46000  0.00000
C 28.08500 10.57500  0.00000
C 26.86400  9.87000  0.00000
C 28.08500 11.98500  0.00000
C 26.86400 12.69000  0.00000
C 28.08500 14.80500  0.00000
C 26.86400 14.10000  0.00000
C 28.08500 16.21500  0.00000
C 26.86400 16.92000  0.00000
C 28.08500 19.03500  0.00000
C 26.86400 18.33000  0.00000
C 28.08500 20.44500  0.00000
C 26.86400 21.15000  0.00000
C 28.08500 23.26500  0.00000
C 26.86400 22.56000  0.00000
C 28.08500 24.67500  0.00000
C 26.86400 25.38000  0.00000
C 28.08500 27.49500  0.00000
C 26.86400 26.79000  0.00000
C 28.08500 28.90500  0.00000
C 26.86400 29.61000  0.00000
C 28.08500 31.72500  0.00000
C 26.86400 31.02000  0.00000
C 28.08500 33.13500  0.00000
C 26.86400 33.84000  0.00000
C 28.08500 35.95500  0.00000
C 26.86400 35.25000  0.00000
C 28.08500 37.36500  0.00000
C 26.86400 38.07000  0.00000
C 28.08500 40.18500  0.00000
C 26.86400 39.48000  0.00000
C 28.08500 41.59500  0.00000
C 26.86400 42.30000  0.00000
C 28.08500 44.41500  0.00000
C 26.86400 43.71000  0.00000
C 28.08500 45.82500  0.00000
C 26.86400 46.53000  0.00000
C 28.08500 48.64500  0.00000
C 26.86400 47.94000  0.00000
C 28.08500 50.05500  0.00000
C 26.86400 50.76000  0.00000
C 28.08500 52.87500  0.00000
C 26.86400 52.17000  0.00000
C 28.08500 54.28500  0.00000
C 26.86400 54.99000  0.00000
C 28.08500 57.10500  0.00000
C 26.86400 56.40000  0.00000
C 28.08500 58.51500  0.00000
C 26.86400 59.22000  0.00000
C 28.08500 61.33500  0.00000
C 26.86400 60.63000  0.00000
C 28.08500 62.74500  0.00000
C 26.86400 63.45000  0.00000
C 28.08500 65.56500  0.00000
C 26.86400 64.86000  0.00000
C 30.52700  7.75500  0.00000
C 29.30600  8.46000  0.00000
C 30.52700 10.57500  0.00000
C 29.30600  9.87000  0.00000
C 30.52700 11.98500  0.00000
C 29.30600 12.69000  0.00000
C 30.52700 14.80500  0.00000
C 29.30600 14.10000  0.00000
C 30.52700 16.21500  0.00000
C 29.30600 16.92000  0.00000
C 30.52700 19.03500  0.00000
C 29.30600 18.33000  0.00000
C 30.52700 20.44500  0.00000
C 29.30600 21.15000  0.00000
C 30.52700 23.26500  0.00000
C 29.30600 22.56000  0.00000
C 30.52700 24.67500  0.00000
C 29.30600 25.38000  0.00000
C 30.52700 27.49500  0.00000
C 29.30600 26.79000  0.00000
C 30.52700 28.90500  0.00000
C 29.30600 29.61000  0.00000
C 30.52700 31.72500  0.00000
C 29.30600 31.02000  0.00000
C 30.52700 33.13500  0.00000
C 29.30600 33.84000  0.00000
C 30.52700 35.95500  0.00000
C 29.30600 35.25000  0.00000
C 30.52700 37.36500  0.00000
C 29.30600 38.07000  0.00000
C 30.52700 40.18500  0.00000
C 29.30600 39.48000  0.00000
C 30.52700 41.59500  0.00000
C 29.30600 42.30000  0.00000
C 30.52700 44.41500  0.00000
C 29.30600 43.71000  0.00000
C 30.52700 45.82500  0.00000
C 29.30600 46.53000  0.00000
C 30.52700 48.64500  0.00000
C 29.30600 47.94000  0.00000
C 30.52700 50.05500  0.00000
C 29.30600 50.76000  0.00000
C 30.52700 52.87500  0.00000
C 29.30600 52.17000  0.00000
C 30.52700 54.28500  0.00000
C 29.30600 54.99000  0.00000
C 30.52700 57.10500  0.00000
C 29.30600 56.40000  0.00000
C 30.52700 58.51500  0.00000
C 29.30600 59.22000  0.00000
C 30.52700 61.33500  0.00000
C 29.30600 60.63000  0.00000
C 30.52700 62.74500  0.00000
C 29.30600 63.45000  0.00000
C 30.52700 65.56500  0.00000
C 29.30600 64.86000  0.00000
C 32.97000  7.75500  0.00000
C 31.74800  8.46000  0.00000
C 32.97000 10.57500  0.00000
C 31.74800  9.87000  0.00000
C 32.97000 11.98500  0.00000
C 31.74800 12.69000  0.00000
C 32.97000 14.80500  0.00000
C 31.74800 14.10000  0.00000
C 32.97000 16.21500  0.00000
C 31.74800 16.92000  0.00000
C 32.97000 19.03500  0.00000
C 31.74800 18.33000  0.00000
C 32.97000 20.44500  0.00000
C 31.74800 21.15000  0.00000
C 32.97000 23.26500  0.00000
C 31.74800 22.56000  0.00000
C 32.97000 24.67500  0.00000
C 31.74800 25.38000  0.00000
C 32.97000 27.49500  0.00000
C 31.74800 26.79000  0.00000
C 32.97000 28.90500  0.00000
C 31.74800 29.61000  0.00000
C 32.97000 31.72500  0.00000
C 31.74800 31.02000  0.00000
C 32.97000 33.13500  0.00000
C 31.74800 33.84000  0.00000
C 32.97000 35.95500  0.00000
C 31.74800 35.25000  0.00000
C 32.97000 37.36500  0.00000
C 31.74800 38.07000  0.00000
C 32.97000 40.18500  0.00000
C 31.74800 39.48000  0.00000
C 32.97000 41.59500  0.00000
C 31.74800 42.30000  0.00000
C 32.97000 44.41500  0.00000
C 31.74800 43.71000  0.00000
C 32.97000 45.82500  0.00000
C 31.74800 46.53000  0.00000
C 32.97000 48.64500  0.00000
C 31.74800 47.94000  0.00000
C 32.97000 50.05500  0.00000
C 31.74800 50.76000  0.00000
C 32.97000 52.87500  0.00000
C 31.74800 52.17000  0.00000
C 32.97000 54.28500  0.00000
C 31.74800 54.99000  0.00000
C 32.97000 57.10500  0.00000
C 31.74800 56.40000  0.00000
C 32.97000 58.51500  0.00000
C 31.74800 59.22000  0.00000
C 32.97000 61.33500  0.00000
C 31.74800 60.63000  0.00000
C 32.97000 62.74500  0.00000
C 31.74800 63.45000  0.00000
C 32.97000 65.56500  0.00000
C 31.74800 64.86000  0.00000
C 35.41200  7.75500  0.00000
C 34.19100  8.46000  0.00000
C 35.41200 10.57500  0.00000
C 34.19100  9.87000  0.00000
C 35.41200 11.98500  0.00000
C 34.19100 12.69000  0.00000
C 35.41200 14.80500  0.00000
C 34.19100 14.10000  0.00000
C 35.41200 16.21500  0.00000
C 34.19100 16.92000  0.00000
C 35.41200 19.03500  0.00000
C 34.19100 18.33000  0.00000
C 35.41200 20.44500  0.00000
C 34.19100 21.15000  0.00000
C 35.41200 23.26500  0.00000
C 34.19100 22.56000  0.00000
C 35.41200 24.67500  0.00000
C 34.19100 25.38000  0.00000
C 35.41200 27.49500  0.00000
C 34.19100 26.79000  0.00000
C 35.41200 28.90500  0.00000
C 34.19100 29.61000  0.00000
C 35.41200 31.72500  0.00000
C 34.19100 31.02000  0.00000
C 35.41200 33.13500  0.00000
C 34.19100 33.84000  0.00000
C 35.41200 35.95500  0.00000
C 34.19100 35.25000  0.00000
C 35.41200 37.36500  0.00000
C 34.19100 38.07000  0.00000
C 35.41200 40.18500  0.00000
C 34.19100 39.48000  0.00000
C 35.41200 41.59500  0.00000
C 34.19100 42.30000  0.00000
C 35.41200 44.41500  0.00000
C 34.19100 43.71000  0.00000
C 35.41200 45.82500  0.00000
C 34.19100 46.53000  0.00000
C 35.41200 48.64500  0.00000
C 34.19100 47.94000  0.00000
C 35.41200 50.05500  0.00000
C 34.19100 50.76000  0.00000
C 35.41200 52.87500  0.00000
C 34.19100 52.17000  0.00000
C 35.41200 54.28500  0.00000
C 34.19100 54.99000  0.00000
C 35.41200 57.10500  0.00000
C 34.19100 56.40000  0.00000
C 35.41200 58.51500  0.00000
C 34.19100 59.22000  0.00000
C 35.41200 61.33500  0.00000
C 34.19100 60.63000  0.00000
C 35.41200 62.74500  0.00000
C 34.19100 63.45000  0.00000
C 35.41200 65.56500  0.00000
C 34.19100 64.86000  0.00000
C 37.85400  7.75500  0.00000
C 36.63300  8.46000  0.00000
C 37.85400 10.57500  0.00000
C 36.63300  9.87000  0.00000
C 37.85400 11.98500  0.00000
C 36.63300 12.69000  0.00000
C 37.85400 14.80500  0.00000
C 36.63300 14.10000  0.00000
C 37.85400 16.21500  0.00000
C 36.63300 16.92000  0.00000
C 37.85400 19.03500  0.00000
C 36.63300 18.33000  0.00000
C 37.85400 20.44500  0.00000
C 36.63300 21.15000  0.00000
C 37.85400 23.26500  0.00000
C 36.63300 22.56000  0.00000
C 37.85400 24.67500  0.00000
C 36.63300 25.38000  0.00000
C 37.85400 27.49500  0.00000
C 36.63300 26.79000  0.00000
C 37.85400 28.90500  0.00000
C 36.63300 29.61000  0.00000
C 37.85400 31.72500  0.00000
C 36.63300 31.02000  0.00000
C 37.85400 33.13500  0.00000
C 36.63300 33.84000  0.00000
C 37.85400 35.95500  0.00000
C 36.63300 35.25000  0.00000
C 37.85400 37.36500  0.00000
C 36.63300 38.07000  0.00000
C 37.85400 40.18500  0.00000
C 36.63300 39.48000  0.00000
C 37.85400 41.59500  0.00000
C 36.63300 42.30000  0.00000
C 37.85400 44.41500  0.00000
C 36.63300 43.71000  0.00000
C 37.85400 45.82500  0.00000
C 36.63300 46.53000  0.00000
C 37.85400 48.64500  0.00000
C 36.63300 47.94000  0.00000
C 37.85400 50.05500  0.00000
C 36.63300 50.76000  0.00000
C 37.85400 52.87500  0.00000
C 36.63300 52.17000  0.00000
C 37.85400 54.28500  0.00000
C 36.63300 54.99000  0.00000
C 37.85400 57.10500  0.00000
C 36.63300 56.40000  0.00000
C 37.85400 58.51500  0.00000
C 36.63300 59.22000  0.00000
C 37.85400 61.33500  0.00000
C 36.63300 60.63000  0.00000
C 37.85400 62.74500  0.00000
C 36.63300 63.45000  0.00000
C 37.85400 65.56500  0.00000
C 36.63300 64.86000  0.00000
C 40.29600  7.75500  0.00000
C 39.07500  8.46000  0.00000
C 40.29600 10.57500  0.00000
C 39.07500  9.87000  0.00000
C 40.29600 11.98500  0.00000
C 39.07500 12.69000  0.00000
C 40.29600 14.80500  0.00000
C 39.07500 14.10000  0.00000
C 40.29600 16.21500  0.00000
C 39.07500 16.92000  0.00000
C 40.29600 19.03500  0.00000
C 39.07500 18.33000  0.00000
C 40.29600 20.44500  0.00000
C 39.07500 21.15000  0.00000
C 40.29600 23.26500  0.00000
C 39.07500 22.56000  0.00000
C 40.29600 24.67500  0.00000
C 39.07500 25.38000  0.00000
C 40.29600 27.49500  0.00000
C 39.07500 26.79000  0.00000
C 40.29600 28.90500  0.00000
C 39.07500 29.61000  0.00000
C 40.29600 31.72500  0.00000
C 39.07500 31.02000  0.00000
C 40.29600 33.13500  0.00000
C 39.07500 33.84000  0.00000
C 40.29600 35.95500  0.00000
C 39.07500 35.25000  0.00000
C 40.29600 37.36500  0.00000
C 39.07500 38.07000  0.00000
C 40.29600 40.18500  0.00000
C 39.07500 39.48000  0.00000
C 40.29600 41.59500  0.00000
C 39.07500 42.30000  0.00000
C 40.29600 44.41500  0.00000
C 39.07500 43.71000  0.00000
C 40.29600 45.82500  0.00000
C 39.07500 46.53000  0.00000
C 40.29600 48.64500  0.00000
C 39.07500 47.94000  0.00000
C 40.29600 50.05500  0.00000
C 39.07500 50.76000  0.00000
C 40.29600 52.87500  0.00000
C 39.07500 52.17000  0.00000
C 40.29600 54.28500  0.00000
C 39.07500 54.99000  0.00000
C 40.29600 57.10500  0.00000
C 39.07500 56.40000  0.00000
C 40.29600 58.51500  0.00000
C 39.07500 59.22000  0.00000
C 40.29600 61.33500  0.00000
C 39.07500 60.63000  0.00000
C 40.29600 62.74500  0.00000
C 39.07500 63.45000  0.00000
C 40.29600 65.56500  0.00000
C 39.07500 64.86000  0.00000
C 42.73800  7.75500  0.00000
C 41.51700  8.46000  0.00000
C 42.73800 10.57500  0.00000
C 41.51700  9.87000  0.00000
C 42.73800 11.98500  0.00000
C 41.51700 12.69000  0.00000
C 42.73800 14.80500  0.00000
C 41.51700 14.10000  0.00000
C 42.73800 16.21500  0.00000
C 41.51700 16.92000  0.00000
C 42.73800 19.03500  0.00000
C 41.51700 18.33000  0.00000
C 42.73800 20.44500  0.00000
C 41.51700 21.15000  0.00000
C 42.73800 23.26500  0.00000
C 41.51700 22.56000  0.00000
C 42.73800 24.67500  0.00000
C 41.51700 25.38000  0.00000
C 42.73800 27.49500  0.00000
C 41.51700 26.79000  0.00000
C 42.73800 28.90500  0.00000
C 41.51700 29.61000  0.00000
C 42.73800 31.72500  0.00000
C 41.51700 31.02000  0.00000
C 42.73800 33.13500  0.00000
C 41.51700 33.84000  0.00000
C 42.73800 35.95500  0.00000
C 41.51700 35.25000  0.00000
C 42.73800 37.36500  0.00000
C 41.51700 38.07000  0.00000
C 42.73800 40.18500  0.00000
C 41.51700 39.48000  0.00000
C 42.73800 41.59500  0.00000
C 41.51700 42.30000  0.00000
C 42.73800 44.41500  0.00000
C 41.51700 43.71000  0.00000
C 42.73800 45.82500  0.00000
C 41.51700 46.53000  0.00000
C 42.73800 48.64500  0.00000
C 41.51700 47.94000  0.00000
C 42.73800 50.05500  0.00000
C 41.51700 50.76000  0.00000
C 42.73800 52.87500  0.00000
C 41.51700 52.17000  0.00000
C 42.73800 54.28500  0.00000
C 41.51700 54.99000  0.00000
C 42.73800 57.10500  0.00000
C 41.51700 56.40000  0.00000
C 42.73800 58.51500  0.00000
C 41.51700 59.22000  0.00000
C 42.73800 61.33500  0.00000
C 41.51700 60.63000  0.00000
C 42.73800 62.74500  0.00000
C 41.51700 63.45000  0.00000
C 42.73800 65.56500  0.00000
C 41.51700 64.86000  0.00000
C 45.18100  7.75500  0.00000
C 43.95900  8.46000  0.00000
C 45.18100 10.57500  0.00000
C 43.95900  9.87000  0.00000
C 45.18100 11.98500  0.00000
C 43.95900 12.69000  0.00000
C 45.18100 14.80500  0.00000
C 43.95900 14.10000  0.00000
C 45.18100 16.21500  0.00000
C 43.95900 16.92000  0.00000
C 45.18100 19.03500  0.00000
C 43.95900 18.33000  0.00000
C 45.18100 20.44500  0.00000
C 43.95900 21.15000  0.00000
C 45.18100 23.26500  0.00000
C 43.95900 22.56000  0.00000
C 45.18100 24.67500  0.00000
C 43.95900 25.38000  0.00000
C 45.18100 27.49500  0.00000
C 43.95900 26.79000  0.00000
C 45.18100 28.90500  0.00000
C 43.95900 29.61000  0.00000
C 45.18100 31.72500  0.00000
C 43.95900 31.02000  0.00000
C 45.18100 33.13500  0.00000
C 43.95900 33.84000  0.00000
C 45.18100 35.95500  0.00000
C 43.95900 35.25000  0.00000
C 45.18100 37.36500  0.00000
C 43.95900 38.07000  0.00000
C 45.18100 40.18500  0.00000
C 43.95900 39.48000  0.00000
C 45.18100 41.59500  0.00000
C 43.95900 42.30000  0.00000
C 45.18100 44.41500  0.00000
C 43.95900 43.71000  0.00000
C 45.18100 45.82500  0.00000
C 43.95900 46.53000  0.00000
C 45.18100 48.64500  0.00000
C 43.95900 47.94000  0.00000
C 45.18100 50.05500  0.00000
C 43.95900 50.76000  0.00000
C 45.18100 52.87500  0.00000
C 43.95900 52.17000  0.00000
C 45.18100 54.28500  0.00000
C 43.95900 54.99000  0.00000
C 45.18100 57.10500  0.00000
C 43.95900 56.40000  0.00000
C 45.18100 58.51500  0.00000
C 43.95900 59.22000  0.00000
C 45.18100 61.33500  0.00000
C 43.95900 60.63000  0.00000
C 45.18100 62.74500  0.00000
C 43.95900 63.45000  0.00000
C 45.18100 65.56500  0.00000
C 43.95900 64.86000  0.00000
C 47.62300  7.75500  0.00000
C 46.40200  8.46000  0.00000
C 47.62300 10.57500  0.00000
C 46.40200  9.87000  0.00000
C 47.62300 11.98500  0.00000
C 46.40200 12.69000  0.00000
C 47.62300 14.80500  0.00000
C 46.40200 14.10000  0.00000
C 47.62300 16.21500  0.00000
C 46.40200 16.92000  0.00000
C 47.62300 19.03500  0.00000
C 46.40200 18.33000  0.00000
C 47.62300 20.44500  0.00000
C 46.40200 21.15000  0.00000
C 47.62300 23.26500  0.00000
C 46.40200 22.56000  0.00000
C 47.62300 24.67500  0.00000
C 46.40200 25.38000  0.00000
C 47.62300 27.49500  0.00000
C 46.40200 26.79000  0.00000
C 47.62300 28.90500  0.00000
C 46.40200 29.61000  0.00000
C 47.62300 31.72500  0.00000
C 46.40200 31.02000  0.00000
C 47.62300 33.13500  0.00000
C 46.40200 33.84000  0.00000
C 47.62300 35.95500  0.00000
C 46.40200 35.25000  0.00000
C 47.62300 37.36500  0.00000
C 46.40200 38.07000  0.00000
C 47.62300 40.18500  0.00000
C 46.40200 39.48000  0.00000
C 47.62300 41.59500  0.00000
C 46.40200 42.30000  0.00000
C 47.62300 44.41500  0.00000
C 46.40200 43.71000  0.00000
C 47.62300 45.82500  0.00000
C 46.40200 46.53000  0.00000
C 47.62300 48.64500  0.00000
C 46.40200 47.94000  0.00000
C 47.62300 50.05500  0.00000
C 46.40200 50.76000  0.00000
C 47.62300 52.87500  0.00000
C 46.40200 52.17000  0.00000
C 47.62300 54.28500  0.00000
C 46.40200 54.99000  0.00000
C 47.62300 57.10500  0.00000
C 46.40200 56.40000  0.00000
C 47.62300 58.51500  0.00000
C 46.40200 59.22000  0.00000
C 47.62300 61.33500  0.00000
C 46.40200 60.63000  0.00000
C 47.62300 62.74500  0.00000
C 46.40200 63.45000  0.00000
C 47.62300 65.56500  0.00000
C 46.40200 64.86000  0.00000
C 50.06500  7.75500  0.00000
C 48.84400  8.46000  0.00000
C 50.06500 10.57500  0.00000
C 48.84400  9.87000  0.00000
C 50.06500 11.98500  0.00000
C 48.84400 12.69000  0.00000
C 50.06500 14.80500  0.00000
C 48.84400 14.10000  0.00000
C 50.06500 16.21500  0.00000
C 48.84400 16.92000  0.00000
C 50.06500 19.03500  0.00000
C 48.84400 18.33000  0.00000
C 50.06500 20.44500  0.00000
C 48.84400 21.15000  0.00000
C 50.06500 23.26500  0.00000
C 48.84400 22.56000  0.00000
C 50.06500 24.67500  0.00000
C 48.84400 25.38000  0.00000
C 50.06500 27.49500  0.00000
C 48.84400 26.79000  0.00000
C 50.06500 28.90500  0.00000
C 48.84400 29.61000  0.00000
C 50.06500 31.72500  0.00000
C 48.84400 31.02000  0.00000
C 50.06500 33.13500  0.00000
C 48.84400 33.84000  0.00000
C 50.06500 35.95500  0.00000
C 48.84400 35.25000  0.00000
C 50.06500 37.36500  0.00000
C 48.84400 38.07000  0.00000
C 50.06500 40.18500  0.00000
C 48.84400 39.48000  0.00000
C 50.06500 41.59500  0.00000
C 48.84400 42.30000  0.00000
C 50.06500 44.41500  0.00000
C 48.84400 43.71000  0.00000
C 50.06500 45.82500  0.00000
C 48.84400 46.53000  0.00000
C 50.06500 48.64500  0.00000
C 48.84400 47.94000  0.00000
C 50.06500 50.05500  0.00000
C 48.84400 50.76000  0.00000
C 50.06500 52.87500  0.00000
C 48.84400 52.17000  0.00000
C 50.06500 54.28500  0.00000
C 48.84400 54.99000  0.00000
C 50.06500 57.10500  0.00000
C 48.84400 56.40000  0.00000
C 50.06500 58.51500  0.00000
C 48.84400 59.22000  0.00000
C 50.06500 61.33500  0.00000
C 48.84400 60.63000  0.00000
C 50.06500 62.74500  0.00000
C 48.84400 63.45000  0.00000
C 50.06500 65.56500  0.00000
C 48.84400 64.86000  0.00000
C 52.50700  7.75500  0.00000
C 51.28600  8.46000  0.00000
C 52.50700 10.57500  0.00000
C 51.28600  9.87000  0.00000
C 52.50700 11.98500  0.00000
C 51.28600 12.69000  0.00000
C 52.50700 14.80500  0.00000
C 51.28600 14.10000  0.00000
C 52.50700 16.21500  0.00000
C 51.28600 16.92000  0.00000
C 52.50700 19.03500  0.00000
C 51.28600 18.33000  0.00000
C 52.50700 20.44500  0.00000
C 51.28600 21.15000  0.00000
C 52.50700 23.26500  0.00000
C 51.28600 22.56000  0.00000
C 52.50700 24.67500  0.00000
C 51.28600 25.38000  0.00000
C 52.50700 27.49500  0.00000
C 51.28600 26.79000  0.00000
C 52.50700 28.90500  0.00000
C 51.28600 29.61000  0.00000
C 52.50700 31.72500  0.00000
C 51.28600 31.02000  0.00000
C 52.50700 33.13500  0.00000
C 51.28600 33.84000  0.00000
C 52.50700 35.95500  0.00000
C 51.28600 35.25000  0.00000
C 52.50700 37.36500  0.00000
C 51.28600 38.07000  0.00000
C 52.50700 40.18500  0.00000
C 51.28600 39.48000  0.00000
C 52.50700 41.59500  0.00000
C 51.28600 42.30000  0.00000
C 52.50700 44.41500  0.00000
C 51.28600 43.71000  0.00000
C 52.50700 45.82500  0.00000
C 51.28600 46.53000  0.00000
C 52.50700 48.64500  0.00000
C 51.28600 47.94000  0.00000
C 52.50700 50.05500  0.00000
C 51.28600 50.76000  0.00000
C 52.50700 52.87500  0.00000
C 51.28600 52.17000  0.00000
C 52.50700 54.28500  0.00000
C 51.28600 54.99000  0.00000
C 52.50700 57.10500  0.00000
C 51.28600 56.40000  0.00000
C 52.50700 58.51500  0.00000
C 51.28600 59.22000  0.00000
C 52.50700 61.33500  0.00000
C 51.28600 60.63000  0.00000
C 52.50700 62.74500  0.00000
C 51.28600 63.45000  0.00000
C 52.50700 65.56500  0.00000
C 51.28600 64.86000  0.00000
C 53.72800  8.46000  0.00000
C 54.94900 10.57500  0.00000
C 53.72800  9.87000  0.00000
C 54.94900 11.98500  0.00000
C 53.72800 12.69000  0.00000
C 54.94900 14.80500  0.00000
C 53.72800 14.10000  0.00000
C 54.94900 16.21500  0.00000
C 53.72800 16.92000  0.00000
C 54.94900 19.03500  0.00000
C 53.72800 18.33000  0.00000
C 54.94900 20.44500  0.00000
C 53.72800 21.15000  0.00000
C 54.94900 23.26500  0.00000
C 53.72800 22.56000  0.00000
C 54.94900 24.67500  0.00000
C 53.72800 25.38000  0.00000
C 54.94900 27.49500  0.00000
C 53.72800 26.79000  0.00000
C 54.94900 28.90500  0.00000
C 53.72800 29.61000  0.00000
C 54.94900 31.72500  0.00000
C 53.72800 31.02000  0.00000
C 54.94900 33.13500  0.00000
C 53.72800 33.84000  0.00000
C 54.94900 35.95500  0.00000
C 53.72800 35.25000  0.00000
C 54.94900 37.36500  0.00000
C 53.72800 38.07000  0.00000
C 54.94900 40.18500  0.00000
C 53.72800 39.48000  0.00000
C 54.94900 41.59500  0.00000
C 53.72800 42.30000  0.00000
C 54.94900 44.41500  0.00000
C 53.72800 43.71000  0.00000
C 54.94900 45.82500  0.00000
C 53.72800 46.53000  0.00000
C 54.94900 48.64500  0.00000
C 53.72800 47.94000  0.00000
C 54.94900 50.05500  0.00000
C 53.72800 50.76000  0.00000
C 54.94900 52.87500  0.00000
C 53.72800 52.17000  0.00000
C 54.94900 54.28500  0.00000
C 53.72800 54.99000  0.00000
C 54.94900 57.10500  0.00000
C 53.72800 56.40000  0.00000
C 54.94900 58.51500  0.00000
C 53.72800 59.22000  0.00000
C 54.94900 61.33500  0.00000
C 53.72800 60.63000  0.00000
C 54.94900 62.74500  0.00000
C 53.72800 63.45000  0.00000
C 53.72800 64.86000  0.00000
C 56.17000 12.69000  0.00000
C 57.39200 14.80500  0.00000
C 56.17000 14.10000  0.00000
C 57.39200 16.21500  0.00000
C 56.17000 16.92000  0.00000
C 57.39200 19.03500  0.00000
C 56.17000 18.33000  0.00000
C 57.39200 20.44500  0.00000
C 56.17000 21.15000  0.00000
C 57.39200 23.26500  0.00000
C 56.17000 22.56000  0.00000
C 57.39200 24.67500  0.00000
C 56.17000 25.38000  0.00000
C 57.39200 27.49500  0.00000
C 56.17000 26.79000  0.00000
C 57.39200 28.90500  0.00000
C 56.17000 29.61000  0.00000
C 57.39200 31.72500  0.00000
C 56.17000 31.02000  0.00000
C 57.39200 33.13500  0.00000
C 56.17000 33.84000  0.00000
C 57.39200 35.95500  0.00000
C 56.17000 35.25000  0.00000
C 57.39200 37.36500  0.00000
C 56.17000 38.07000  0.00000
C 57.39200 40.18500  0.00000
C 56.17000 39.48000  0.00000
C 57.39200 41.59500  0.00000
C 56.17000 42.30000  0.00000
C 57.39200 44.41500  0.00000
C 56.17000 43.71000  0.00000
C 57.39200 45.82500  0.00000
C 56.17000 46.53000  0.00000
C 57.39200 48.64500  0.00000
C 56.17000 47.94000  0.00000
C 57.39200 50.05500  0.00000
C 56.17000 50.76000  0.00000
C 57.39200 52.87500  0.00000
C 56.17000 52.17000  0.00000
C 57.39200 54.28500  0.00000
C 56.17000 54.99000  0.00000
C 57.39200 57.10500  0.00000
C 56.17000 56.40000  0.00000
C 57.39200 58.51500  0.00000
C 56.17000 59.22000  0.00000
C 56.17000 60.63000  0.00000
C 58.61300 16.92000  0.00000
C 59.83400 19.03500  0.00000
C 58.61300 18.33000  0.00000
C 59.83400 20.44500  0.00000
C 58.61300 21.15000  0.00000
C 59.83400 23.26500  0.00000
C 58.61300 22.56000  0.00000
C 59.83400 24.67500  0.00000
C 58.61300 25.38000  0.00000
C 59.83400 27.49500  0.00000
C 58.61300 26.79000  0.00000
C 59.83400 28.90500  0.00000
C 58.61300 29.61000  0.00000
C 59.83400 31.72500  0.00000
C 58.61300 31.02000  0.00000
C 59.83400 33.13500  0.00000
C 58.61300 33.84000  0.00000
C 59.83400 35.95500  0.00000
C 58.61300 35.25000  0.00000
C 59.83400 37.36500  0.00000
C 58.61300 38.07000  0.00000
C 59.83400 40.18500  0.00000
C 58.61300 39.48000  0.00000
C 59.83400 41.59500  0.00000
C 58.61300 42.30000  0.00000
C 59.83400 44.41500  0.00000
C 58.61300 43.71000  0.00000
C 59.83400 45.82500  0.00000
C 58.61300 46.53000  0.00000
C 59.83400 48.64500  0.00000
C 58.61300 47.94000  0.00000
C 59.83400 50.05500  0.00000
C 58.61300 50.76000  0.00000
C 59.83400 52.87500  0.00000
C 58.61300 52.17000  0.00000
C 59.83400 54.28500  0.00000
C 58.61300 54.99000  0.00000
C 58.61300 56.40000  0.00000
C 61.05500 21.15000  0.00000
C 62.27600 23.26500  0.00000
C 61.05500 22.56000  0.00000
C 62.27600 24.67500  0.00000
C 61.05500 25.38000  0.00000
C 62.27600 27.49500  0.00000
C 61.05500 26.79000  0.00000
C 62.27600 28.90500  0.00000
C 61.05500 29.61000  0.00000
C 62.27600 31.72500  0.00000
C 61.05500 31.02000  0.00000
C 62.27600 33.13500  0.00000
C 61.05500 33.84000  0.00000
C 62.27600 35.95500  0.00000
C 61.05500 35.25000  0.00000
C 62.27600 37.36500  0.00000
C 61.05500 38.07000  0.00000
C 62.27600 40.18500  0.00000
C 61.05500 39.48000  0.00000
C 62.27600 41.59500  0.00000
C 61.05500 42.30000  0.00000
C 62.27600 44.41500  0.00000
C 61.05500 43.71000  0.00000
C 62.27600 45.82500  0.00000
C 61.05500 46.53000  0.00000
C 62.27600 48.64500  0.00000
C 61.05500 47.94000  0.00000
C 62.27600 50.05500  0.00000
C 61.05500 50.76000  0.00000
C 61.05500 52.17000  0.00000
C 63.49700 25.38000  0.00000
C 64.71800 27.49500  0.00000
C 63.49700 26.79000  0.00000
C 64.71800 28.90500  0.00000
C 63.49700 29.61000  0.00000
C 64.71800 31.72500  0.00000
C 63.49700 31.02000  0.00000
C 64.71800 33.13500  0.00000
C 63.49700 33.84000  0.00000
C 64.71800 35.95500  0.00000
C 63.49700 35.25000  0.00000
C 64.71800 37.36500  0.00000
C 63.49700 38.07000  0.00000
C 64.71800 40.18500  0.00000
C 63.49700 39.48000  0.00000
C 64.71800 41.59500  0.00000
C 63.49700 42.30000  0.00000
C 64.71800 44.41500  0.00000
C 63.49700 43.71000  0.00000
C 64.71800 45.82500  0.00000
C 63.49700 46.53000  0.00000
C 63.49700 47.94000  0.00000
C 65.93900 29.61000  0.00000
C 67.16000 31.72500  0.00000
C 65.93900 31.02000  0.00000
C 67.16000 33.13500  0.00000
C 65.93900 33.84000  0.00000
C 67.16000 35.95500  0.00000
C 65.93900 35.25000  0.00000
C 67.16000 37.36500  0.00000
C 65.93900 38.07000  0.00000
C 67.16000 40.18500  0.00000
C 65.93900 39.48000  0.00000
C 67.16000 41.59500  0.00000
C 65.93900 42.30000  0.00000
C 65.93900 43.71000  0.00000
C 68.38100 33.84000  0.00000
C 69.60300 35.95500  0.00000
C 68.38100 35.25000  0.00000
C 69.60300 37.36500  0.00000
C 68.38100 38.07000  0.00000
C 68.38100 39.48000  0.00000
H 20.75900 66.14200 -0.81700
H 20.75900 66.14200  0.81700
H 19.03800 65.14900 -0.81700
H 19.03800 65.14900  0.81700
H 23.20100 66.14200  0.81700
H 23.20100 66.14200 -0.81700
H 25.64300 66.14200 -0.81700
H 25.64300 66.14200  0.81700
H 28.08500 66.14200 -0.81700
H 28.08500 66.14200  0.81700
H 30.52700 66.14200  0.81700
H 30.52700 66.14200 -0.81700
H 32.97000 66.14200 -0.81700
H 32.97000 66.14200  0.81700
H 35.41200 66.14200 -0.81700
H 35.41200 66.14200  0.81700
H 37.85400 66.14200 -0.81700
H 37.85400 66.14200  0.81700
H 40.29600 66.14200 -0.81700
H 40.29600 66.14200  0.81700
H 42.73800 66.14200  0.81700
H 42.73800 66.14200 -0.81700
H 45.18100 66.14200 -0.81700
H 45.18100 66.14200  0.81700
H 47.62300 66.14200 -0.81700
H 47.62300 66.14200  0.81700
H 50.06500 66.14200  0.81700
H 50.06500 66.14200 -0.81700
H 52.50700 66.14200 -0.81700
H 52.50700 66.14200  0.81700
H 55.44900 63.03400  0.81700
H 55.44900 63.03400 -0.81700
H 54.22800 65.14900 -0.81700
H 54.22800 65.14900  0.81700
H 57.89100 58.80400  0.81700
H 57.89100 58.80400 -0.81700
H 56.67000 60.91900 -0.81700
H 56.67000 60.91900  0.81700
H 60.33400 54.57400  0.81700
H 60.33400 54.57400 -0.81700
H 59.11200 56.68900 -0.81700
H 59.11200 56.68900  0.81700
H 62.77600 50.34400  0.81700
H 62.77600 50.34400 -0.81700
H 61.55500 52.45900 -0.81700
H 61.55500 52.45900  0.81700
H 65.21800 46.11400  0.81700
H 65.21800 46.11400 -0.81700
H 63.99700 48.22900 -0.81700
H 63.99700 48.22900  0.81700
H 67.66000 41.88400  0.81700
H 67.66000 41.88400 -0.81700
H 66.43900 43.99900 -0.81700
H 66.43900 43.99900  0.81700
H 70.10200 37.65400  0.81700
H 70.10200 37.65400 -0.81700
H 68.88100 39.76900 -0.81700
H 68.88100 39.76900  0.81700
H 54.22800  8.17100  0.81700
H 54.22800  8.17100 -0.81700
H 55.44900 10.28600  0.81700
H 55.44900 10.28600 -0.81700
H 56.67000 12.40100  0.81700
H 56.67000 12.40100 -0.81700
H 57.89100 14.51600 -0.81700
H 57.89100 14.51600  0.81700
H 59.11200 16.63100  0.81700
H 59.11200 16.63100 -0.81700
H 60.33400 18.74600  0.81700
H 60.33400 18.74600 -0.81700
H 61.55500 20.86100  0.81700
H 61.55500 20.86100 -0.81700
H 62.77600 22.97600 -0.81700
H 62.77600 22.97600  0.81700
H 63.99700 25.09100  0.81700
H 63.99700 25.09100 -0.81700
H 65.21800 27.20600  0.81700
H 65.21800 27.20600 -0.81700
H 66.43900 29.32100  0.81700
H 66.43900 29.32100 -0.81700
H 67.66000 31.43600  0.81700
H 67.66000 31.43600 -0.81700
H 68.88100 33.55100  0.81700
H 68.88100 33.55100 -0.81700
H 70.10200 35.66600 -0.81700
H 70.10200 35.66600  0.81700
H 20.75900  7.17800  0.81700
H 20.75900  7.17800 -0.81700
H 23.20100  7.17800 -0.81700
H 23.20100  7.17800  0.81700
H 25.64300  7.17800  0.81700
H 25.64300  7.17800 -0.81700
H 28.08500  7.17800  0.81700
H 28.08500  7.17800 -0.81700
H 30.52700  7.17800 -0.81700
H 30.52700  7.17800  0.81700
H 32.97000  7.17800  0.81700
H 32.97000  7.17800 -0.81700
H 35.41200  7.17800  0.81700
H 35.41200  7.17800 -0.81700
H 37.85400  7.17800  0.81700
H 37.85400  7.17800 -0.81700
H 40.29600  7.17800  0.81700
H 40.29600  7.17800 -0.81700
H 42.73800  7.17800 -0.81700
H 42.73800  7.17800  0.81700
H 45.18100  7.17800  0.81700
H 45.18100  7.17800 -0.81700
H 47.62300  7.17800  0.81700
H 47.62300  7.17800 -0.81700
H 50.06500  7.17800 -0.81700
H 50.06500  7.17800  0.81700
H 52.50700  7.17800  0.81700
H 52.50700  7.17800 -0.81700
H 3.16300 35.66600  0.81700
H 3.16300 35.66600 -0.81700
H 5.60600 31.43600 -0.81700
H 5.60600 31.43600  0.81700
H 4.38500 33.55100 -0.81700
H 4.38500 33.55100  0.81700
H 8.04800 27.20600 -0.81700
H 8.04800 27.20600  0.81700
H 6.82700 29.32100 -0.81700
H 6.82700 29.32100  0.81700
H 10.49000 22.97600  0.81700
H 10.49000 22.97600 -0.81700
H 9.26900 25.09100 -0.81700
H 9.26900 25.09100  0.81700
H 12.93200 18.74600 -0.81700
H 12.93200 18.74600  0.81700
H 11.71100 20.86100 -0.81700
H 11.71100 20.86100  0.81700
H 15.37400 14.51600  0.81700
H 15.37400 14.51600 -0.81700
H 14.15300 16.63100 -0.81700
H 14.15300 16.63100  0.81700
H 17.81700 10.28600 -0.81700
H 17.81700 10.28600  0.81700
H 16.59600 12.40100 -0.81700
H 16.59600 12.40100  0.81700
H 19.03800  8.17100 -0.81700
H 19.03800  8.17100  0.81700
H 3.16300 37.65400 -0.81700
H 3.16300 37.65400  0.81700
H 4.38500 39.76900 -0.81700
H 4.38500 39.76900  0.81700
H 5.60600 41.88400 -0.81700
H 5.60600 41.88400  0.81700
H 6.82700 43.99900 -0.81700
H 6.82700 43.99900  0.81700
H 8.04800 46.11400 -0.81700
H 8.04800 46.11400  0.81700
H 9.26900 48.22900 -0.81700
H 9.26900 48.22900  0.81700
H 10.49000 50.34400 -0.81700
H 10.49000 50.34400  0.81700
H 11.71100 52.45900 -0.81700
H 11.71100 52.45900  0.81700
H 12.93200 54.57400 -0.81700
H 12.93200 54.57400  0.81700
H 14.15300 56.68900 -0.81700
H 14.15300 56.68900  0.81700
H 15.37400 58.80400 -0.81700
H 15.37400 58.80400  0.81700
H 16.59600 60.91900 -0.81700
H 16.59600 60.91900  0.81700
H 17.81700 63.03400 -0.81700
H 17.81700 63.03400  0.81700
